
====================================
"5-text_indentation.py" module usage
====================================

This module defines a text-indentation function ``text_indentation(text)``.

Usage
=====

Text is printed with two new lines after each of the characters ``.``, ``?``,
and ``:``.

::

    >>> text_indentation = __import__('5-text_indentation').text_indentation
    >>> text_indentation("How are you?")
    How are you?
    <BLANKLINE>

No spaces are printed at the beginning of a line.

::

    >>> text_indentation("   Coding life.")
    Coding life.
    <BLANKLINE>

::

    >>> text_indentation("          ")

Similarly, no spaces are printed at the end of each printed line.

::

    >>> text_indentation("Code bytes.   ")
    Code bytes.
    <BLANKLINE>

::

    >>> text_indentation("    Space before.    More spaces.   ")
    Space before.
    <BLANKLINE>
    More spaces.
    <BLANKLINE>


Only characters ".", "?", and ":" warrant line breaks;
text lacking these ends without a newline.

::

    >>> text_indentation("Wait! i do not end with a period")
    Wait! i do not end with a period

New lines within a string are printed as normal.

::

    >>> text_indentation("I am printing a new-line! Here goes:\nPrinted.")
    I am printing a new-line! Here goes:
    <BLANKLINE>
    <BLANKLINE>
    Printed.
    <BLANKLINE>

::

    >>> text_indentation("\n\n\n Here is our printed three lines.")
    <BLANKLINE>
    <BLANKLINE>
    <BLANKLINE>
    Here is our printed three lines.
    <BLANKLINE>

::
    >>> text_indentation("Unexpected \n new line.")
    Unexpected 
    new line.
    <BLANKLINE>

A combo example:

::

    >>> text_indentation("Lorem ipsum dolor sit amet, consectetur adipiscing "
    ... "elit. Quonam modo? Utrum igitur tibi litteram videor an totas paginas "
    ... "commovere? Non autem hoc: igitur ne illud quidem. Fortasse id optimum, "
    ... "sed ubi illud: Plus semper voluptatis? Teneo, inquit, finem illi videri "
    ... "nihil dolere. Transfer idem ad modestiam vel temperantiam, quae est "
    ... "moderatio cupiditatum rationi oboediens. Si id dicis, vicimus. Inde "
    ... "sermone vario sex illa a Dipylo stadia confecimus. Sin aliud quid "
    ... "voles, postea. Quae animi affectio suum cuique tribuens atque hanc, "
    ... "quam dico. Utinam quidem dicerent alium alio beatiorem! Iam ruinas "
    ... "videres") # doctest: +NORMALIZE_WHITESPACE
    Lorem ipsum dolor sit amet, consectetur adipiscing elit.
    <BLANKLINE>
    Quonam modo?
    <BLANKLINE>
    Utrum igitur tibi litteram videor an totas paginas commovere?
    <BLANKLINE>
    Non autem hoc:
    <BLANKLINE>
    igitur ne illud quidem.
    <BLANKLINE>
    Fortasse id optimum, sed ubi illud:
    <BLANKLINE>
    Plus semper voluptatis?
    <BLANKLINE>
    Teneo, inquit, finem illi videri nihil dolere.
    <BLANKLINE>
    Transfer idem ad modestiam vel temperantiam, 
    quae est moderatio cupiditatum rationi oboediens.
    <BLANKLINE>
    Si id dicis, vicimus.
    <BLANKLINE>
    Inde sermone vario sex illa a Dipylo stadia confecimus.
    <BLANKLINE>
    Sin aliud quid voles, postea.
    <BLANKLINE>
    Quae animi affectio suum cuique tribuens atque hanc, quam dico.
    <BLANKLINE>
    Utinam quidem dicerent alium alio beatiorem! Iam ruinas videres

Invalid Text
============

For string processing only, parameter ``text`` must be a string;
a TypeError ensues otherwise.

::

    >>> text_indentation(45)
    Traceback (most recent call last):
    TypeError: text must be a string

::

    >>> text_indentation({"three": 3, "five": 5})
    Traceback (most recent call last):
    TypeError: text must be a string

::

    >>> text_indentation(None)
    Traceback (most recent call last):
    TypeError: text must be a string
